       4
GEOMETRY FILE / created by CPMD
  C      4.938259014315      4.391019345769      4.999999996374              0.000000000000      0.000000000000      0.000000000000
  O      5.062115591221      5.612786943958      5.000000001176              0.000000000000      0.000000000000      0.000000000000
  H      3.936142451773      3.898882891681      5.000000001225              0.000000000000      0.000000000000      0.000000000000
  H      5.819966890390      3.706643096174      5.000000001225              0.000000000000      0.000000000000      0.000000000000
